src/tests/data/grids/ucte/xnodeThreeClosedLine.uct
##C 2007.05.01
Generated by powsybl, 2019.09.23 17:47
Case date: 2019.09.24 19:30
##N
##ZBE
BEBBBB11              0 0        3.96708 0.00000 0.00000 0.00000
BEBBBB12              0 0        3.96708 0.00000 0.00000 0.00000
##ZFR
FFFFFF11              0 0        3.96708 0.00000 0.00000 0.00000
FFFFFF12              0 0        3.96708 0.00000 0.00000 0.00000
##ZXX
XXXXXX11              1 0        3.96708 0.00000 0.00000 0.00000
##L
BEBBBB11 XXXXXX11 1 0 0.0000 0.2000 0.000000   8080 ABCDE
BEBBBB12 XXXXXX11 1 8 0.0000 0.2000 0.000000   8080 ABCDE
FFFFFF11 XXXXXX11 1 0 0.0000 0.2000 0.000000   8080 ABCDE
FFFFFF12 XXXXXX11 1 0 0.0000 0.2000 0.000000   8080 ABCDE
##T
##R
